<configuration>
    <input>
        <net-file value="tokyo.net.xml"/>
        <route-files value="tokyo.rou.xml"/>
    </input>
    <time>
        <begin value="0"/>
        <end value="300"/>
    </time>
</configuration>